/*--------------------------------*- C++ -*----------------------------------*\
| =========                 |                                                 |
| \\      /  F ield         | OpenFOAM: The Open Source CFD Toolbox           |
|  \\    /   O peration     | Version:  2412                                  |
|   \\  /    A nd           | Website:  www.openfoam.com                      |
|    \\/     M anipulation  |                                                 |
\*---------------------------------------------------------------------------*/
FoamFile
{
    version     2.0;
    format      ascii;
    arch        "LSB;label=32;scalar=64";
    class       mapDistributePolyMesh;
    location    "constant/rightSolid/polyMesh";
    object      procAddressing;
}
// * * * * * * * * * * * * * * * * * * * * * * * * * * * * * * * * * * * * * //

16 16 3
6(6 0 1 0 3 4)
6(2 8 8 9 9 12)
6(16 0 4 0 8 10)
132

4
(
16(0 1 2 3 4 5 6 7 8 9 10 11 12 13 14 15)
0()
0()
0()
)

4
(
16(0 1 2 3 4 5 6 7 8 9 10 11 12 13 14 15)
66(16 17 18 19 20 21 22 23 24 25 26 27 0 1 28 29 30 31 3 32 33 34 35 5 36 37 38 39 7 40 41 42 43 44 45 46 47 48 49 50 51 52 53 54 55 8 9 56 57 58 59 11 60 61 62 63 13 64 65 66 67 15 68 69 70 71)
66(72 73 74 75 76 77 78 79 80 81 82 83 84 85 86 87 88 89 90 91 92 93 94 95 96 97 98 16 17 18 19 20 21 99 100 101 102 103 104 105 106 107 108 109 110 111 112 113 114 115 116 117 118 119 120 121 122 123 124 125 44 45 46 47 48 49)
16(126 127 72 128 76 77 81 82 129 130 99 131 103 104 108 109)
)
0 0 0

0()
0()
215

4
(
16(1 2 3 4 5 6 7 8 9 13 14 15 16 10 11 12)
0()
0()
0()
)

4
(
16(1 4 86 87 88 89 90 91 191 2 3 5 6 206 207 208)
98(7 8 10 11 13 14 16 17 19 21 22 23 24 25 26 27 28 29 30 31 32 33 34 35 36 37 38 39 40 41 42 43 44 45 92 93 94 95 96 97 98 99 100 101 102 103 104 105 106 107 108 109 110 111 112 113 114 115 116 117 118 119 120 121 122 123 124 125 126 127 128 129 130 131 132 133 134 135 192 193 194 195 196 197 198 199 200 -2 -3 -5 -6 9 12 15 18 20 209 210)
98(46 47 49 50 51 52 53 56 57 58 59 60 61 62 64 65 66 67 68 69 70 71 72 73 74 75 76 77 78 79 80 81 82 83 136 137 138 139 140 141 142 143 144 145 146 147 148 149 150 151 152 153 154 155 156 157 158 159 160 161 162 163 164 165 166 167 168 169 170 171 172 173 174 175 176 177 178 179 186 187 188 201 202 203 204 205 -9 -12 -15 -18 -20 48 54 55 63 211 212 213)
16(84 85 180 181 182 183 184 185 189 190 -48 -54 -55 -63 214 215)
)
1 1 0

0()
0()
50

4
(
3(0 1 2)
0()
0()
0()
)

4
(
3(0 1 2)
22(3 4 5 6 7 8 9 10 11 12 13 14 15 16 17 18 19 20 21 22 23 24)
22(25 26 27 28 29 30 31 32 33 34 35 36 37 38 39 40 41 42 43 44 45 46)
3(47 48 49)
)
0 0 0

0()
0()
5

4
(
5(0 1 2 3 4)
0()
0()
0()
)

4
(
5(0 1 2 3 4)
5(0 1 2 3 4)
5(0 1 2 3 4)
5(0 1 2 3 4)
)
0 0 0

0()
0()

// ************************************************************************* //
