/*--------------------------------*- C++ -*----------------------------------*\
| =========                 |                                                 |
| \\      /  F ield         | OpenFOAM: The Open Source CFD Toolbox           |
|  \\    /   O peration     | Version:  v2412                                 |
|   \\  /    A nd           | Website:  www.openfoam.com                      |
|    \\/     M anipulation  |                                                 |
\*---------------------------------------------------------------------------*/
FoamFile
{
    version     2.0;
    format      ascii;
    class       dictionary;
    object      decomposeParDict;
}
// * * * * * * * * * * * * * * * * * * * * * * * * * * * * * * * * * * * * * //

// numberOfSubdomains  2;

// method  scotch;

// constraints
// {
//     faces
//     {
//         type    preserveFaceZones;
//         zones
//         (
//             interfaceZone
//         );
//         enabled true;
//     }
// }
numberOfSubdomains  8;

method hierarchical;

hierarchicalCoeffs
{
    n           (2 4 1);   // 2 splits in x → left/right rank
    delta       0.001;
}

constraints
{
    faces
    {
        type preserveFaceZones;
        zones (interfaceZone);
        enabled true;
    }
}
// ************************************************************************* //
