/*--------------------------------*- C++ -*----------------------------------*\
  =========                 |
  \\      /  F ield         | OpenFOAM: The Open Source CFD Toolbox
   \\    /   O peration     | Website:  https://openfoam.org
    \\  /    A nd           | Version:  9
     \\/     M anipulation  |
\*---------------------------------------------------------------------------*/
FoamFile
{
    format      ascii;
    class       dictionary;
    location    "system";
    object      fvSolution;
}
// * * * * * * * * * * * * * * * * * * * * * * * * * * * * * * * * * * * * * //
#include "../configuration/config"

solvers
{
    ePotential
    {
        solver          PCG;
	    preconditioner  DIC;
        tolerance       1e-9;
        relTol          0;
        maxIter         2000;
    }
}

ePotentialControls
{
    nNonOrthogonalCorrectors    0;
}

// ************************************************************************* //
