/*--------------------------------*- C++ -*----------------------------------*\
| =========                 |                                                 |
| \\      /  F ield         | OpenFOAM: The Open Source CFD Toolbox           |
|  \\    /   O peration     | Version:  2412                                  |
|   \\  /    A nd           | Website:  www.openfoam.com                      |
|    \\/     M anipulation  |                                                 |
\*---------------------------------------------------------------------------*/
FoamFile
{
    version     2.0;
    format      ascii;
    arch        "LSB;label=32;scalar=64";
    class       polyBoundaryMesh;
    location    "constant/leftFluid/polyMesh";
    object      boundary;
}
// * * * * * * * * * * * * * * * * * * * * * * * * * * * * * * * * * * * * * //

3
(
    bottomTopBackFront
    {
        type            empty;
        inGroups        1(empty);
        nFaces          20;
        startFace       4;
    }
    left
    {
        type            patch;
        nFaces          1;
        startFace       24;
    }
    leftFluid_to_rightSolid
    {
        type            mappedWall;
        inGroups        1(wall);
        nFaces          1;
        startFace       25;
        sampleMode      nearestPatchFace;
        sampleRegion    rightSolid;
        samplePatch     rightSolid_to_leftFluid;
    }
)

// ************************************************************************* //
