/*--------------------------------*- C++ -*----------------------------------*\
| =========                 |                                                 |
| \\      /  F ield         | OpenFOAM: The Open Source CFD Toolbox           |
|  \\    /   O peration     | Version:  v2412                                 |
|   \\  /    A nd           | Website:  www.openfoam.com                      |
|    \\/     M anipulation  |                                                 |
\*---------------------------------------------------------------------------*/
FoamFile
{
    version     2.0;
    format      ascii;
    class       dictionary;
    object      topoSetDict;
}
// * * * * * * * * * * * * * * * * * * * * * * * * * * * * * * * * * * * * * //

actions
(
    // leftFluid
    {
        name    leftFluidCellSet;
        type    cellSet;
        action  new;
        source  boxToCell;
        box     (0 0 0) (5 1 1);
    }
    {
        name    leftFluid;
        type    cellZoneSet;
        action  new;
        source  setToCellZone;
        set     leftFluidCellSet;
    }

    // rightSolid
    {
        name    rightSolidCellSet;
        type    cellSet;
        action  new;
        source  boxToCell;
        box     (5 0 0) (10 1 1);
    }
    {
        name    rightSolid;
        type    cellZoneSet;
        action  new;
        source  setToCellZone;
        set     rightSolidCellSet;
    }

);


// ************************************************************************* //
