/*--------------------------------*- C++ -*----------------------------------*\
| =========                 |                                                 |
| \\      /  F ield         | OpenFOAM: The Open Source CFD Toolbox           |
|  \\    /   O peration     | Version:  2412                                  |
|   \\  /    A nd           | Website:  www.openfoam.com                      |
|    \\/     M anipulation  |                                                 |
\*---------------------------------------------------------------------------*/
FoamFile
{
    version     2.0;
    format      ascii;
    arch        "LSB;label=32;scalar=64";
    class       volScalarField;
    location    "0/leftFluid";
    object      ePotential;
}
// * * * * * * * * * * * * * * * * * * * * * * * * * * * * * * * * * * * * * //

dimensions      [1 2 -3 0 0 -1 0];

internalField   uniform 0;

boundaryField
{
    bottomTopBackFront
    {
        type            empty;
    }
    left
    {
        #include        "../../configuration/config"
        type            fixedValue;
        value           uniform $dirichletValueLeft;
    }
    leftFluid_to_rightSolid
    {
        #include         "../../configuration/config"
        type            coupledElectricPotential;
        value           uniform 0;        useImplicit         true;
        surfCharge      surfCharge;
        surfChargeNbr   none;
    }
}


// ************************************************************************* //
