/*--------------------------------*- C++ -*----------------------------------*\
| =========                 |                                                 |
| \\      /  F ield         | OpenFOAM: The Open Source CFD Toolbox           |
|  \\    /   O peration     | Version:  2412                                  |
|   \\  /    A nd           | Website:  www.openfoam.com                      |
|    \\/     M anipulation  |                                                 |
\*---------------------------------------------------------------------------*/
FoamFile
{
    version     2.0;
    format      ascii;
    arch        "LSB;label=32;scalar=64";
    class       polyBoundaryMesh;
    location    "constant/polyMesh";
    object      boundary;
}
// * * * * * * * * * * * * * * * * * * * * * * * * * * * * * * * * * * * * * //

7
(
    backFront
    {
        type            empty;
        inGroups        1(empty);
        nFaces          50;
        startFace       39;
    }
    bottom
    {
        type            patch;
        nFaces          0;
        startFace       89;
    }
    top
    {
        type            patch;
        nFaces          6;
        startFace       89;
    }
    left
    {
        type            patch;
        nFaces          5;
        startFace       95;
    }
    right
    {
        type            patch;
        nFaces          0;
        startFace       100;
    }
    procBoundary0to1
    {
        type            processor;
        inGroups        1(processor);
        nFaces          8;
        startFace       100;
        matchTolerance  0.0001;
        transform       unknown;
        myProcNo        0;
        neighbProcNo    1;
    }
    procBoundary0to3
    {
        type            processor;
        inGroups        1(processor);
        nFaces          3;
        startFace       108;
        matchTolerance  0.0001;
        transform       unknown;
        myProcNo        0;
        neighbProcNo    3;
    }
)

// ************************************************************************* //
