/*--------------------------------*- C++ -*----------------------------------*\
| =========                 |                                                 |
| \\      /  F ield         | OpenFOAM: The Open Source CFD Toolbox           |
|  \\    /   O peration     | Version:  2412                                  |
|   \\  /    A nd           | Website:  www.openfoam.com                      |
|    \\/     M anipulation  |                                                 |
\*---------------------------------------------------------------------------*/
FoamFile
{
    version     2.0;
    format      ascii;
    arch        "LSB;label=32;scalar=64";
    class       polyBoundaryMesh;
    location    "constant/polyMesh";
    object      boundary;
}
// * * * * * * * * * * * * * * * * * * * * * * * * * * * * * * * * * * * * * //

5
(
    backFront
    {
        type            empty;
        inGroups        1(empty);
        nFaces          200;
        startFace       180;
    }
    bottom
    {
        type            patch;
        nFaces          10;
        startFace       380;
    }
    top
    {
        type            patch;
        nFaces          10;
        startFace       390;
    }
    left
    {
        type            patch;
        nFaces          10;
        startFace       400;
    }
    right
    {
        type            patch;
        nFaces          10;
        startFace       410;
    }
)

// ************************************************************************* //
