/*--------------------------------*- C++ -*----------------------------------*\
| =========                 |                                                 |
| \\      /  F ield         | OpenFOAM: The Open Source CFD Toolbox           |
|  \\    /   O peration     | Version:  2412                                  |
|   \\  /    A nd           | Website:  www.openfoam.com                      |
|    \\/     M anipulation  |                                                 |
\*---------------------------------------------------------------------------*/
FoamFile
{
    version     2.0;
    format      ascii;
    arch        "LSB;label=32;scalar=64";
    class       polyBoundaryMesh;
    location    "constant/rightSolid/polyMesh";
    object      boundary;
}
// * * * * * * * * * * * * * * * * * * * * * * * * * * * * * * * * * * * * * //

5
(
    backFront
    {
        type            empty;
        inGroups        1(empty);
        nFaces          2500;
        startFace       2425;
    }
    bottom
    {
        type            patch;
        nFaces          25;
        startFace       4925;
    }
    top
    {
        type            patch;
        nFaces          25;
        startFace       4950;
    }
    right
    {
        type            patch;
        nFaces          50;
        startFace       4975;
    }
    rightSolid_to_leftFluid
    {
        type            mappedWall;
        inGroups        1(wall);
        nFaces          50;
        startFace       5025;
        sampleMode      nearestPatchFace;
        sampleRegion    leftFluid;
        samplePatch     leftFluid_to_rightSolid;
    }
)

// ************************************************************************* //
