/*--------------------------------*- C++ -*----------------------------------*\
| =========                 |                                                 |
| \\      /  F ield         | OpenFOAM: The Open Source CFD Toolbox           |
|  \\    /   O peration     | Version:  2412                                  |
|   \\  /    A nd           | Website:  www.openfoam.com                      |
|    \\/     M anipulation  |                                                 |
\*---------------------------------------------------------------------------*/
FoamFile
{
    version     2.0;
    format      ascii;
    arch        "LSB;label=32;scalar=64";
    class       polyBoundaryMesh;
    location    "constant/rightSolid/polyMesh";
    object      boundary;
}
// * * * * * * * * * * * * * * * * * * * * * * * * * * * * * * * * * * * * * //

6
(
    backFront
    {
        type            empty;
        inGroups        1(empty);
        nFaces          6;
        startFace       2;
    }
    bottom
    {
        type            patch;
        nFaces          0;
        startFace       8;
    }
    top
    {
        type            patch;
        nFaces          1;
        startFace       8;
    }
    right
    {
        type            patch;
        nFaces          0;
        startFace       9;
    }
    rightSolid_to_leftFluid
    {
        type            mappedWall;
        inGroups        1(wall);
        nFaces          3;
        startFace       9;
        sampleMode      nearestPatchFace;
        sampleRegion    leftFluid;
        samplePatch     leftFluid_to_rightSolid;
    }
    procBoundary0to1
    {
        type            processor;
        inGroups        1(processor);
        nFaces          4;
        startFace       12;
        matchTolerance  0.0001;
        transform       unknown;
        myProcNo        0;
        neighbProcNo    1;
    }
)

// ************************************************************************* //
