/*--------------------------------*- C++ -*----------------------------------*\
| =========                 |                                                 |
| \\      /  F ield         | OpenFOAM: The Open Source CFD Toolbox           |
|  \\    /   O peration     | Version:  2412                                  |
|   \\  /    A nd           | Website:  www.openfoam.com                      |
|    \\/     M anipulation  |                                                 |
\*---------------------------------------------------------------------------*/
FoamFile
{
    version     2.0;
    format      ascii;
    arch        "LSB;label=32;scalar=64";
    class       polyBoundaryMesh;
    location    "constant/leftFluid/polyMesh";
    object      boundary;
}
// * * * * * * * * * * * * * * * * * * * * * * * * * * * * * * * * * * * * * //

8
(
    backFront
    {
        type            empty;
        inGroups        1(empty);
        nFaces          44;
        startFace       34;
    }
    bottom
    {
        type            patch;
        nFaces          5;
        startFace       78;
    }
    top
    {
        type            patch;
        nFaces          0;
        startFace       83;
    }
    left
    {
        type            patch;
        nFaces          5;
        startFace       83;
    }
    leftFluid_to_rightSolid
    {
        type            mappedWall;
        inGroups        1(wall);
        nFaces          2;
        startFace       88;
        sampleMode      nearestPatchFace;
        sampleRegion    rightSolid;
        samplePatch     rightSolid_to_leftFluid;
    }
    procBoundary3to0
    {
        type            processor;
        inGroups        1(processor);
        nFaces          3;
        startFace       90;
        matchTolerance  0.0001;
        transform       unknown;
        myProcNo        3;
        neighbProcNo    0;
    }
    procBoundary3to1
    {
        type            processor;
        inGroups        1(processor);
        nFaces          1;
        startFace       93;
        matchTolerance  0.0001;
        transform       unknown;
        myProcNo        3;
        neighbProcNo    1;
    }
    procBoundary3to2
    {
        type            processor;
        inGroups        1(processor);
        nFaces          4;
        startFace       94;
        matchTolerance  0.0001;
        transform       unknown;
        myProcNo        3;
        neighbProcNo    2;
    }
)

// ************************************************************************* //
