/*--------------------------------*- C++ -*----------------------------------*\
| =========                 |                                                 |
| \\      /  F ield         | OpenFOAM: The Open Source CFD Toolbox           |
|  \\    /   O peration     | Version:  2412                                  |
|   \\  /    A nd           | Website:  www.openfoam.com                      |
|    \\/     M anipulation  |                                                 |
\*---------------------------------------------------------------------------*/
FoamFile
{
    version     2.0;
    format      ascii;
    arch        "LSB;label=32;scalar=64";
    class       polyBoundaryMesh;
    location    "constant/rightSolid/polyMesh";
    object      boundary;
}
// * * * * * * * * * * * * * * * * * * * * * * * * * * * * * * * * * * * * * //

7
(
    backFront
    {
        type            empty;
        inGroups        1(empty);
        nFaces          44;
        startFace       34;
    }
    bottom
    {
        type            patch;
        nFaces          3;
        startFace       78;
    }
    top
    {
        type            patch;
        nFaces          0;
        startFace       81;
    }
    right
    {
        type            patch;
        nFaces          5;
        startFace       81;
    }
    rightSolid_to_leftFluid
    {
        type            mappedWall;
        inGroups        1(wall);
        nFaces          3;
        startFace       86;
        sampleMode      nearestPatchFace;
        sampleRegion    leftFluid;
        samplePatch     leftFluid_to_rightSolid;
    }
    procBoundary2to1
    {
        type            processor;
        inGroups        1(processor);
        nFaces          5;
        startFace       89;
        matchTolerance  0.0001;
        transform       unknown;
        myProcNo        2;
        neighbProcNo    1;
    }
    procBoundary2to3
    {
        type            processor;
        inGroups        1(processor);
        nFaces          4;
        startFace       94;
        matchTolerance  0.0001;
        transform       unknown;
        myProcNo        2;
        neighbProcNo    3;
    }
)

// ************************************************************************* //
