/*--------------------------------*- C++ -*----------------------------------*\
| =========                 |                                                 |
| \\      /  F ield         | OpenFOAM: The Open Source CFD Toolbox           |
|  \\    /   O peration     | Version:  2412                                  |
|   \\  /    A nd           | Website:  www.openfoam.com                      |
|    \\/     M anipulation  |                                                 |
\*---------------------------------------------------------------------------*/
FoamFile
{
    version     2.0;
    format      ascii;
    arch        "LSB;label=32;scalar=64";
    class       mapDistributePolyMesh;
    location    "constant/leftFluid/polyMesh";
    object      procAddressing;
}
// * * * * * * * * * * * * * * * * * * * * * * * * * * * * * * * * * * * * * //

66 98 22
7(44 0 5 5 3 4 3)
7(34 78 78 83 88 91 95)
7(66 0 12 12 8 10 8)
132

4
(
66(0 1 2 3 4 5 6 7 8 9 10 11 12 13 14 15 16 17 18 19 20 21 22 23 24 25 26 27 28 29 30 31 32 33 34 35 36 37 38 39 40 41 42 43 44 45 46 47 48 49 50 51 52 53 54 55 56 57 58 59 60 61 62 63 64 65)
0()
0()
0()
)

4
(
66(0 1 2 3 4 5 6 7 8 9 10 11 12 13 14 15 16 17 18 19 20 21 22 23 24 25 26 27 28 29 30 31 32 33 34 35 36 37 38 39 40 41 42 43 44 45 46 47 48 49 50 51 52 53 54 55 56 57 58 59 60 61 62 63 64 65)
16(3 66 67 7 8 68 13 14 36 69 70 40 41 71 46 47)
16(72 73 74 75 76 77 66 67 78 79 80 81 82 83 69 70)
66(84 85 86 87 88 89 90 91 92 93 94 95 96 97 98 99 72 73 100 101 102 103 74 104 105 106 107 76 0 1 2 3 66 108 109 110 111 112 113 114 115 116 117 118 119 120 121 122 123 78 79 124 125 126 127 80 128 129 130 131 82 33 34 35 36 69)
)
0 0 0

0()
0()
215

4
(
98(1 2 3 4 5 6 7 8 9 10 11 12 13 14 15 16 17 18 19 20 21 22 23 24 25 26 27 28 29 30 31 32 33 34 35 36 37 38 39 40 41 42 43 44 45 46 47 48 49 50 51 52 53 54 55 56 57 58 59 60 61 62 63 64 65 66 67 68 69 70 71 72 73 74 75 76 77 78 79 80 81 82 83 84 85 86 87 88 92 93 94 95 96 97 98 89 90 91)
0()
0()
0()
)

4
(
98(1 2 4 5 7 10 11 12 13 14 15 16 19 20 21 22 23 24 25 26 27 29 30 31 32 33 34 35 36 37 38 39 40 41 86 87 88 89 90 91 92 93 94 95 96 97 98 99 100 101 102 103 104 105 106 107 108 109 110 111 112 113 114 115 116 117 118 119 120 121 122 123 124 125 126 127 128 129 191 192 193 194 195 196 197 198 199 200 8 17 18 28 3 6 9 206 207 208)
16(42 44 130 131 132 133 134 135 -8 -17 -18 -28 45 43 209 210)
16(46 49 136 137 138 139 140 141 -45 47 48 50 51 211 212 213)
98(52 53 54 55 56 57 58 59 60 61 62 63 64 65 66 67 68 69 70 71 72 73 74 75 76 77 78 79 80 81 82 83 84 85 142 143 144 145 146 147 148 149 150 151 152 153 154 155 156 157 158 159 160 161 162 163 164 165 166 167 168 169 170 171 172 173 174 175 176 177 178 179 180 181 182 183 184 185 186 187 188 189 190 201 202 203 204 205 -3 -6 -9 -43 -47 -48 -50 -51 214 215)
)
1 1 0

0()
0()
50

4
(
22(0 1 2 3 4 5 6 7 8 9 10 11 12 13 14 15 16 17 18 19 20 21)
0()
0()
0()
)

4
(
22(0 1 2 3 4 5 6 7 8 9 10 11 12 13 14 15 16 17 18 19 20 21)
3(22 23 24)
3(25 26 27)
22(28 29 30 31 32 33 34 35 36 37 38 39 40 41 42 43 44 45 46 47 48 49)
)
0 0 0

0()
0()
5

4
(
5(0 1 2 3 4)
0()
0()
0()
)

4
(
5(0 1 2 3 4)
5(0 1 2 3 4)
5(0 1 2 3 4)
5(0 1 2 3 4)
)
0 0 0

0()
0()

// ************************************************************************* //
