/*--------------------------------*- C++ -*----------------------------------*\
| =========                 |                                                 |
| \\      /  F ield         | OpenFOAM: The Open Source CFD Toolbox           |
|  \\    /   O peration     | Version:  2412                                  |
|   \\  /    A nd           | Website:  www.openfoam.com                      |
|    \\/     M anipulation  |                                                 |
\*---------------------------------------------------------------------------*/
FoamFile
{
    version     2.0;
    format      ascii;
    arch        "LSB;label=32;scalar=64";
    class       polyBoundaryMesh;
    location    "constant/polyMesh";
    object      boundary;
}
// * * * * * * * * * * * * * * * * * * * * * * * * * * * * * * * * * * * * * //

8
(
    backFront
    {
        type            empty;
        inGroups        1(empty);
        nFaces          50;
        startFace       38;
    }
    bottom
    {
        type            patch;
        nFaces          0;
        startFace       88;
    }
    top
    {
        type            patch;
        nFaces          4;
        startFace       88;
    }
    left
    {
        type            patch;
        nFaces          0;
        startFace       92;
    }
    right
    {
        type            patch;
        nFaces          5;
        startFace       92;
    }
    procBoundary1to0
    {
        type            processor;
        inGroups        1(processor);
        nFaces          8;
        startFace       97;
        matchTolerance  0.0001;
        transform       unknown;
        myProcNo        1;
        neighbProcNo    0;
    }
    procBoundary1to2
    {
        type            processor;
        inGroups        1(processor);
        nFaces          6;
        startFace       105;
        matchTolerance  0.0001;
        transform       unknown;
        myProcNo        1;
        neighbProcNo    2;
    }
    procBoundary1to3
    {
        type            processor;
        inGroups        1(processor);
        nFaces          1;
        startFace       111;
        matchTolerance  0.0001;
        transform       unknown;
        myProcNo        1;
        neighbProcNo    3;
    }
)

// ************************************************************************* //
