/*--------------------------------*- C++ -*----------------------------------*\
| =========                 |                                                 |
| \\      /  F ield         | OpenFOAM: The Open Source CFD Toolbox           |
|  \\    /   O peration     | Version:  2412                                  |
|   \\  /    A nd           | Website:  www.openfoam.com                      |
|    \\/     M anipulation  |                                                 |
\*---------------------------------------------------------------------------*/
FoamFile
{
    version     2.0;
    format      ascii;
    arch        "LSB;label=32;scalar=64";
    class       polyBoundaryMesh;
    location    "constant/leftFluid/polyMesh";
    object      boundary;
}
// * * * * * * * * * * * * * * * * * * * * * * * * * * * * * * * * * * * * * //

7
(
    backFront
    {
        type            empty;
        inGroups        1(empty);
        nFaces          6;
        startFace       2;
    }
    bottom
    {
        type            patch;
        nFaces          0;
        startFace       8;
    }
    top
    {
        type            patch;
        nFaces          0;
        startFace       8;
    }
    left
    {
        type            patch;
        nFaces          0;
        startFace       8;
    }
    leftFluid_to_rightSolid
    {
        type            mappedWall;
        inGroups        1(wall);
        nFaces          3;
        startFace       8;
        sampleMode      nearestPatchFace;
        sampleRegion    rightSolid;
        samplePatch     rightSolid_to_leftFluid;
    }
    procBoundary2to1
    {
        type            processor;
        inGroups        1(processor);
        nFaces          1;
        startFace       11;
        matchTolerance  0.0001;
        transform       unknown;
        myProcNo        2;
        neighbProcNo    1;
    }
    procBoundary2to3
    {
        type            processor;
        inGroups        1(processor);
        nFaces          4;
        startFace       12;
        matchTolerance  0.0001;
        transform       unknown;
        myProcNo        2;
        neighbProcNo    3;
    }
)

// ************************************************************************* //
